*Heading
** Job name: fuel_sloshing Model name: Model-1
** Generated by: Abaqus/CAE 2024
*Preprint, echo=NO, model=NO, history=NO, contact=NO
**
** PARTS
**
*Part, name=eulerian
*Node
      1,         150.,          35.,          10.
      2,         150.,         32.5,          10.
      3,         150.,          30.,          10.
      4,         150.,         27.5,          10.
      5,         150.,          25.,          10.
      6,         150.,         22.5,          10.
      7,         150.,          20.,          10.
      8,         150.,         17.5,          10.
      9,         150.,          15.,          10.
     10,         150.,         12.5,          10.
     11,         150.,          10.,          10.
     12,         150.,          7.5,          10.
     13,         150.,           5.,          10.
     14,         150.,          2.5,          10.
     15,         150.,           0.,          10.
     16,         150.,         -2.5,          10.
     17,         150.,          -5.,          10.
     18,         150.,         -7.5,          10.
     19,         150.,         -10.,          10.
     20,         150.,        -12.5,          10.
** ... 17525 like lines cut
*Element, type=EC3D8R
    1,   146,   147,   176,   175,     1,     2,    31,    30
    2,   147,   148,   177,   176,     2,     3,    32,    31
    3,   148,   149,   178,   177,     3,     4,    33,    32
    4,   149,   150,   179,   178,     4,     5,    34,    33
    5,   150,   151,   180,   179,     5,     6,    35,    34
    6,   151,   152,   181,   180,     6,     7,    36,    35
    7,   152,   153,   182,   181,     7,     8,    37,    36
    8,   153,   154,   183,   182,     8,     9,    38,    37
    9,   154,   155,   184,   183,     9,    10,    39,    38
   10,   155,   156,   185,   184,    10,    11,    40,    39
   11,   156,   157,   186,   185,    11,    12,    41,    40
   12,   157,   158,   187,   186,    12,    13,    42,    41
   13,   158,   159,   188,   187,    13,    14,    43,    42
   14,   159,   160,   189,   188,    14,    15,    44,    43
   15,   160,   161,   190,   189,    15,    16,    45,    44
   16,   161,   162,   191,   190,    16,    17,    46,    45
   17,   162,   163,   192,   191,    17,    18,    47,    46
   18,   163,   164,   193,   192,    18,    19,    48,    47
   19,   164,   165,   194,   193,    19,    20,    49,    48
   20,   165,   166,   195,   194,    20,    21,    50,    49
** ... 13420 like lines cut
*Nset, nset=eulerian, generate
     1,  17545,      1
*Elset, elset=eulerian, generate
     1,  13440,      1
*Nset, nset=Set-4, generate
     1,  17545,      1
*Elset, elset=Set-4, generate
     1,  13440,      1
*Nset, nset=eulerian_set_fuel, generate
     1,  17545,      1
** Section: sec fuel
*Eulerian Section, elset=Set-4
"Material fuel", fuel-1
*Surface, type=EULERIAN MATERIAL, name=fuel-1
fuel-1
*End Part
**  
*Part, name=tank
*Node
      1,          50.,          30.,          10.
      2,          50.,         -30.,          10.
      3,          50.,         -30.,           0.
      4,          50.,          30.,           0.
      5,         -50.,         -30.,          10.
      6,         -50.,          30.,          10.
      7,         -50.,          30.,           0.
      8,         -50.,         -30.,           0.
      9,          50.,         27.5,          10.
     10,          50.,          25.,          10.
     11,          50.,         22.5,          10.
     12,          50.,          20.,          10.
     13,          50.,         17.5,          10.
     14,          50.,          15.,          10.
     15,          50.,         12.5,          10.
     16,          50.,          10.,          10.
     17,          50.,          7.5,          10.
     18,          50.,           5.,          10.
     19,          50.,          2.5,          10.
     20,          50.,           0.,          10.
** ... 2414 like lines cut
*Element, type=R3D4
 1,   1,   9, 269,  60
 2,   9,  10, 270, 269
 3,  10,  11, 271, 270
 4,  11,  12, 272, 271
 5,  12,  13, 273, 272
 6,  13,  14, 274, 273
 7,  14,  15, 275, 274
 8,  15,  16, 276, 275
 9,  16,  17, 277, 276
10,  17,  18, 278, 277
11,  18,  19, 279, 278
12,  19,  20, 280, 279
13,  20,  21, 281, 280
14,  21,  22, 282, 281
15,  22,  23, 283, 282
16,  23,  24, 284, 283
17,  24,  25, 285, 284
18,  25,  26, 286, 285
19,  26,  27, 287, 286
20,  27,  28, 288, 287
** ... 2412 like lines cut
*Node
   2435,         -50.,          30.,           5.
*Nset, nset=tank-RefPt_, internal
2435, 
*Nset, nset=RP
 2435,
*Nset, nset=tank, generate
    1,  2434,     1
*Elset, elset=tank, generate
    1,  2432,     1
*Elset, elset=tank, generate
    1,  2432,     1
*End Part
**  
**
** ASSEMBLY
**
*Assembly, name=Assembly
**  
*Instance, name=eulerian-1, part=eulerian
         95.,           0.,           0.
*End Instance
**  
*Instance, name=tank-1, part=tank
*End Instance
**  
*Nset, nset=Set-3, instance=eulerian-1, generate
     1,  17545,      1
*Elset, elset=Set-3, instance=eulerian-1, generate
     1,  13440,      1
*Nset, nset=_PickedSet23, internal, instance=eulerian-1, generate
     1,  17545,      1
*Elset, elset=_PickedSet23, internal, instance=eulerian-1, generate
     1,  13440,      1
*Rigid Body, ref node=tank-1.tank-RefPt_, elset=tank-1.tank
*End Assembly
*Amplitude, name=Amp-1
             0.,              1.,            0.01,              0.,            0.02,              0.
** 
** MATERIALS
** 
*Material, name="Material fuel"
*Density
 8e-10,
*Eos, type=USUP
 1.5e+06, 1.9,  2.
*Viscosity
 2e-09,
** 
** INTERACTION PROPERTIES
** 
*Surface Interaction, name=contact
*Friction
 0.34,
*Surface Behavior, pressure-overclosure=HARD
** 
** BOUNDARY CONDITIONS
** 
** Name: tank-displacement Type: Displacement/Rotation
*Boundary
tank-1.RP, 2, 2
tank-1.RP, 3, 3
tank-1.RP, 4, 4
tank-1.RP, 5, 5
tank-1.RP, 6, 6
** 
** PREDEFINED FIELDS
** 
** Name: Predefined Field-2   Type: Material assignment
*Initial Conditions, type=VOLUME FRACTION
eulerian-1.8743, eulerian-1.fuel-1, 1.
eulerian-1.8744, eulerian-1.fuel-1, 1.
eulerian-1.8745, eulerian-1.fuel-1, 1.
eulerian-1.8746, eulerian-1.fuel-1, 1.
eulerian-1.8747, eulerian-1.fuel-1, 1.
eulerian-1.8748, eulerian-1.fuel-1, 1.
eulerian-1.8749, eulerian-1.fuel-1, 1.
eulerian-1.8750, eulerian-1.fuel-1, 1.
eulerian-1.8751, eulerian-1.fuel-1, 1.
eulerian-1.8752, eulerian-1.fuel-1, 1.
eulerian-1.8753, eulerian-1.fuel-1, 1.
eulerian-1.8754, eulerian-1.fuel-1, 1.
eulerian-1.8755, eulerian-1.fuel-1, 1.
eulerian-1.8756, eulerian-1.fuel-1, 1.
eulerian-1.8757, eulerian-1.fuel-1, 1.
eulerian-1.8758, eulerian-1.fuel-1, 1.
eulerian-1.8759, eulerian-1.fuel-1, 1.
eulerian-1.8760, eulerian-1.fuel-1, 1.
eulerian-1.8761, eulerian-1.fuel-1, 1.
eulerian-1.8762, eulerian-1.fuel-1, 1.
** ... 3180 like lines cut
** Name: velocity   Type: Velocity
*Initial Conditions, type=VELOCITY
eulerian-1.eulerian_set_fuel, 1, 8333.33
** ----------------------------------------------------------------
** 
** STEP: Step-1
** 
*Step, name=Step-1, nlgeom=YES
*Dynamic, Explicit
, 0.02
*Bulk Viscosity
0.06, 1.2
** 
** BOUNDARY CONDITIONS
** 
** Name: deceleration Type: Velocity/Angular velocity
*Boundary, amplitude=Amp-1, type=VELOCITY
tank-1.RP, 1, 1, 8333.33
** 
** LOADS
** 
** Name: Gravity   Type: Gravity
*Dload
, GRAV, 9810., 0., -1., 0.
** 
** INTERACTIONS
** 
** Interaction: Int-1
*Contact, op=NEW
*Contact Inclusions, ALL EXTERIOR
*Contact Property Assignment
 ,  , contact
** 
** OUTPUT REQUESTS
** 
*Restart, write, number interval=1, time marks=NO
** 
** FIELD OUTPUT: F-Output-1
** 
*Output, field, time interval=0.001
*Node Output
U, 
*Element Output, directions=YES
EVF, 
** 
** HISTORY OUTPUT: H-Output-1
** 
*Output, history, frequency=0
*End Step
