*Heading
** Job name: water_sloshing_rotation Model name: Model-1
** Generated by: Abaqus/CAE 2024
*Preprint, echo=NO, model=NO, history=NO, contact=NO
**
** PARTS
**
*Part, name=eulerian
*Node
      1,         150.,          35.,          10.
      2,         150.,         32.5,          10.
      3,         150.,          30.,          10.
      4,         150.,         27.5,          10.
      5,         150.,          25.,          10.
      6,         150.,         22.5,          10.
      7,         150.,          20.,          10.
      8,         150.,         17.5,          10.
      9,         150.,          15.,          10.
     10,         150.,         12.5,          10.
     11,         150.,          10.,          10.
     12,         150.,          7.5,          10.
     13,         150.,           5.,          10.
     14,         150.,          2.5,          10.
     15,         150.,           0.,          10.
     16,         150.,         -2.5,          10.
     17,         150.,          -5.,          10.
     18,         150.,         -7.5,          10.
     19,         150.,         -10.,          10.
     20,         150.,        -12.5,          10.
** ... 29625 like lines cut
*Element, type=EC3D8R
    1,   246,   247,   296,   295,     1,     2,    51,    50
    2,   247,   248,   297,   296,     2,     3,    52,    51
    3,   248,   249,   298,   297,     3,     4,    53,    52
    4,   249,   250,   299,   298,     4,     5,    54,    53
    5,   250,   251,   300,   299,     5,     6,    55,    54
    6,   251,   252,   301,   300,     6,     7,    56,    55
    7,   252,   253,   302,   301,     7,     8,    57,    56
    8,   253,   254,   303,   302,     8,     9,    58,    57
    9,   254,   255,   304,   303,     9,    10,    59,    58
   10,   255,   256,   305,   304,    10,    11,    60,    59
   11,   256,   257,   306,   305,    11,    12,    61,    60
   12,   257,   258,   307,   306,    12,    13,    62,    61
   13,   258,   259,   308,   307,    13,    14,    63,    62
   14,   259,   260,   309,   308,    14,    15,    64,    63
   15,   260,   261,   310,   309,    15,    16,    65,    64
   16,   261,   262,   311,   310,    16,    17,    66,    65
   17,   262,   263,   312,   311,    17,    18,    67,    66
   18,   263,   264,   313,   312,    18,    19,    68,    67
   19,   264,   265,   314,   313,    19,    20,    69,    68
   20,   265,   266,   315,   314,    20,    21,    70,    69
** ... 23020 like lines cut
*Nset, nset=eulerian, generate
     1,  29645,      1
*Elset, elset=eulerian, generate
     1,  23040,      1
*Nset, nset=Set-4, generate
     1,  29645,      1
*Elset, elset=Set-4, generate
     1,  23040,      1
*Nset, nset=eulerian_water, generate
     1,  29645,      1
** Section: sec water
*Eulerian Section, elset=Set-4
water, fuel-1
*Surface, type=EULERIAN MATERIAL, name=fuel-1
fuel-1
*End Part
**  
*Part, name=tank
*Node
      1,          50.,          30.,          10.
      2,          50.,         -30.,          10.
      3,          50.,         -30.,           0.
      4,          50.,          30.,           0.
      5,         -50.,         -30.,          10.
      6,         -50.,          30.,          10.
      7,         -50.,          30.,           0.
      8,         -50.,         -30.,           0.
      9,          50.,         27.5,          10.
     10,          50.,          25.,          10.
     11,          50.,         22.5,          10.
     12,          50.,          20.,          10.
     13,          50.,         17.5,          10.
     14,          50.,          15.,          10.
     15,          50.,         12.5,          10.
     16,          50.,          10.,          10.
     17,          50.,          7.5,          10.
     18,          50.,           5.,          10.
     19,          50.,          2.5,          10.
     20,          50.,           0.,          10.
** ... 2414 like lines cut
*Element, type=R3D4
 1,   1,   9, 269,  60
 2,   9,  10, 270, 269
 3,  10,  11, 271, 270
 4,  11,  12, 272, 271
 5,  12,  13, 273, 272
 6,  13,  14, 274, 273
 7,  14,  15, 275, 274
 8,  15,  16, 276, 275
 9,  16,  17, 277, 276
10,  17,  18, 278, 277
11,  18,  19, 279, 278
12,  19,  20, 280, 279
13,  20,  21, 281, 280
14,  21,  22, 282, 281
15,  22,  23, 283, 282
16,  23,  24, 284, 283
17,  24,  25, 285, 284
18,  25,  26, 286, 285
19,  26,  27, 287, 286
20,  27,  28, 288, 287
** ... 2412 like lines cut
*Node
   2435,         -50.,          30.,          10.
*Nset, nset=tank-RefPt_, internal
2435, 
*Nset, nset=tank, generate
    1,  2434,     1
*Elset, elset=tank, generate
    1,  2432,     1
*Nset, nset=RP
 2435,
*Elset, elset=tank, generate
    1,  2432,     1
*End Part
**  
**
** ASSEMBLY
**
*Assembly, name=Assembly
**  
*Instance, name=eulerian-1, part=eulerian
         95.,          30.,           0.
*End Instance
**  
*Instance, name=tank-1, part=tank
          0.,           5.,           0.
*End Instance
**  
*Nset, nset=Set-4, instance=eulerian-1, generate
     1,  29645,      1
*Elset, elset=Set-4, instance=eulerian-1, generate
     1,  23040,      1
*Nset, nset=Set-6, instance=eulerian-1, generate
     1,  29645,      1
*Elset, elset=Set-6, instance=eulerian-1, generate
     1,  23040,      1
*Nset, nset=_PickedSet39, internal, instance=eulerian-1, generate
     1,  29645,      1
*Elset, elset=_PickedSet39, internal, instance=eulerian-1, generate
     1,  23040,      1
*Nset, nset=_PickedSet41, internal, instance=eulerian-1, generate
     1,  29645,      1
*Elset, elset=_PickedSet41, internal, instance=eulerian-1, generate
     1,  23040,      1
*Rigid Body, ref node=tank-1.tank-RefPt_, elset=tank-1.tank
*End Assembly
*Amplitude, name=angular
             0.,              0.,            0.01,              1.,            0.02,              1.
*Amplitude, name=velocity
             0.,              1.,            0.01,              0.,            0.02,              0.
** 
** MATERIALS
** 
*Material, name=water
*Density
 9.4e-10,
*Eos, type=USUP
 1.45e+06,0.,0.
*Viscosity
 1e-09,
** 
** INTERACTION PROPERTIES
** 
*Surface Interaction, name=contact
*Friction
 0.2,
*Surface Behavior, pressure-overclosure=HARD
** 
** BOUNDARY CONDITIONS
** 
** Name: displacement_and_rotation Type: Displacement/Rotation
*Boundary
tank-1.RP, 2, 2
tank-1.RP, 3, 3
tank-1.RP, 4, 4
tank-1.RP, 5, 5
** 
** PREDEFINED FIELDS
** 
** Name: Predefined Field-1   Type: Material assignment
*Initial Conditions, type=VOLUME FRACTION
eulerian-1.14997, eulerian-1.fuel-1, 1.
eulerian-1.14998, eulerian-1.fuel-1, 1.
eulerian-1.14999, eulerian-1.fuel-1, 1.
eulerian-1.15000, eulerian-1.fuel-1, 1.
eulerian-1.15001, eulerian-1.fuel-1, 1.
eulerian-1.15002, eulerian-1.fuel-1, 1.
eulerian-1.15003, eulerian-1.fuel-1, 1.
eulerian-1.15004, eulerian-1.fuel-1, 1.
eulerian-1.15005, eulerian-1.fuel-1, 1.
eulerian-1.15006, eulerian-1.fuel-1, 1.
eulerian-1.15007, eulerian-1.fuel-1, 1.
eulerian-1.15008, eulerian-1.fuel-1, 1.
eulerian-1.15009, eulerian-1.fuel-1, 1.
eulerian-1.15010, eulerian-1.fuel-1, 1.
eulerian-1.15011, eulerian-1.fuel-1, 1.
eulerian-1.15012, eulerian-1.fuel-1, 1.
eulerian-1.15045, eulerian-1.fuel-1, 1.
eulerian-1.15046, eulerian-1.fuel-1, 1.
eulerian-1.15047, eulerian-1.fuel-1, 1.
eulerian-1.15048, eulerian-1.fuel-1, 1.
** ... 2540 like lines cut
** Name: water_velocity   Type: Velocity
*Initial Conditions, type=ROTATING VELOCITY
eulerian-1.eulerian_water, 10., 5500., 0., 0., 
0., 0., 0., 0., 0., 1., 
** ----------------------------------------------------------------
** 
** STEP: Step-1
** 
*Step, name=Step-1, nlgeom=YES
*Dynamic, Explicit
, 0.02
*Bulk Viscosity
0.06, 1.2
** 
** BOUNDARY CONDITIONS
** 
** Name: angular_velocity Type: Velocity/Angular velocity
*Boundary, amplitude=angular, type=VELOCITY
tank-1.RP, 6, 6, 10.
** Name: velocity Type: Velocity/Angular velocity
*Boundary, amplitude=velocity, type=VELOCITY
tank-1.RP, 1, 1, 5500.
** 
** LOADS
** 
** Name: Gravity   Type: Gravity
*Dload
, GRAV, 9810., 0., -1., 0.
** 
** INTERACTIONS
** 
** Interaction: Int-1
*Contact, op=NEW
*Contact Inclusions, ALL EXTERIOR
*Contact Property Assignment
 ,  , contact
** 
** OUTPUT REQUESTS
** 
*Restart, write, number interval=1, time marks=NO
** 
** FIELD OUTPUT: F-Output-1
** 
*Output, field, time interval=0.001
*Node Output
U, 
*Element Output, directions=YES
EVF, 
** 
** HISTORY OUTPUT: H-Output-1
** 
*Output, history, frequency=0
*End Step
